/*--------------------------------*- C++ -*----------------------------------*\
  =========                 |
| \\      /  F ield         | OpenFOAM: The Open Source CFD Toolbox           |
|  \\    /   O peration     | Version:  6.0                                   |
|   \\  /    A nd           | Website:  https://openfoam.org                  |
|    \\/     M anipulation  |                                                 |
\*---------------------------------------------------------------------------*/
FoamFile
{
    version     2.0;
    format      ascii;
    class       dictionary;
    object      fvSchemes;
}
// * * * * * * * * * * * * * * * * * * * * * * * * * * * * * * * * * * * * * //

ddtSchemes
{
    default         CrankNicolson 1;
}

gradSchemes
{
    default         Gauss linear;
    grad(p)         Gauss linear;
    grad(U)         Gauss linear;
    grad(T)         Gauss linear;
    linExtrapGrad   Gauss linear;
}

divSchemes
{
    default                  Gauss linear;
    div(phi,U)               GaussDefCmpw cubista;
    div(phi,theta)           GaussDefCmpw cubista;
    div(phi,tau)             GaussDefCmpw cubista;
    div(phi,T)		     GaussDefCmpw cubista;
    div(phi,C)               GaussDefCmpw cubista;
    div(tau)                 Gauss linear; 
    div(phi,lambda)          Gauss linear;
    div(phi,etaP)            Gauss linear;
    div(eta*dev2(T(gradU)))  Gauss linear;
}

laplacianSchemes
{
    default                  none;
    laplacian(eta,U)         Gauss linear orthogonal;
    laplacian(p|(ap-H1))     Gauss linear orthogonal;
    laplacian(kt,T)          Gauss linear orthogonal;
    laplacian(D,C)           Gauss linear orthogonal;
}

interpolationSchemes
{
    default           linear;
}

snGradSchemes
{
    default           orthogonal;
}

fluxRequired
{
    default           no;
    p;
}

// ************************************************************************* //
